Version 4
SHEET 1 1280 680
WIRE 64 192 64 144
WIRE 64 192 -32 192
WIRE 112 192 64 192
WIRE 208 192 176 192
WIRE 640 192 560 192
WIRE 736 192 736 160
WIRE 736 192 640 192
WIRE 784 192 736 192
WIRE 880 192 848 192
WIRE -32 208 -32 192
WIRE 64 208 64 192
WIRE 560 208 560 192
WIRE 640 208 640 192
WIRE 736 208 736 192
WIRE -144 288 -144 240
WIRE -80 288 -80 272
WIRE 64 288 64 272
WIRE 448 288 448 240
WIRE 512 288 512 272
WIRE 736 288 736 272
WIRE 144 432 112 432
FLAG 64 288 0
FLAG 64 144 Vx
IOPIN 64 144 Out
FLAG 208 192 X
IOPIN 208 192 Out
FLAG 736 288 0
FLAG 736 160 Vy
IOPIN 736 160 Out
FLAG 880 192 y
IOPIN 880 192 Out
FLAG 640 288 0
FLAG -80 288 0
FLAG -32 288 0
FLAG 560 288 0
FLAG 512 288 0
FLAG 384 224 Vy
IOPIN 384 224 In
FLAG -144 416 Vx
IOPIN -144 416 In
FLAG -144 448 Vy
IOPIN -144 448 In
FLAG -208 224 Vx
IOPIN -208 224 In
FLAG 144 432 V
IOPIN 144 432 Out
FLAG -208 192 V
IOPIN -208 192 In
FLAG 384 192 V
IOPIN 384 192 In
SYMBOL cap 48 208 R0
SYMATTR InstName C1
SYMATTR Value {m} IC={v0x}
SYMATTR SpiceLine Rpar=100Meg
SYMBOL cap 720 208 R0
SYMATTR InstName C2
SYMATTR Value {m} IC={v0y}
SYMATTR SpiceLine Rpar=100Meg
SYMBOL Math\\Idt 816 192 R0
SYMATTR Value c0={y0}
SYMATTR InstName U2
SYMBOL current 640 208 R0
WINDOW 3 36 56 Left 2
WINDOW 123 0 0 Left 0
WINDOW 39 0 0 Left 0
SYMATTR Value {Fg}
SYMATTR InstName I1
SYMBOL Math\\Idt 144 192 R0
SYMATTR InstName U1
SYMBOL g2 -32 192 R0
SYMATTR InstName G1
SYMATTR Value 1
SYMBOL Math\\Mul2 -112 224 R0
SYMATTR InstName U4
SYMBOL Math\\Const -192 288 R0
SYMATTR Value c0={kx}
SYMATTR InstName U5
SYMBOL g2 560 192 R0
SYMATTR InstName G2
SYMATTR Value 1
SYMBOL Math\\Mul2 480 224 R0
SYMATTR InstName U6
SYMBOL Math\\Const 400 288 R0
SYMATTR Value c0={ky}
SYMATTR InstName U8
SYMBOL Math\\Sqrt 64 432 R0
SYMATTR InstName U9
SYMBOL Math\\Mul2 -176 208 R0
SYMATTR InstName U10
SYMBOL Math\\Pow2 -96 416 R0
SYMATTR InstName U11
SYMBOL Math\\Pow2 -96 448 R0
SYMATTR InstName U12
SYMBOL Math\\Add2 -16 432 R0
SYMATTR InstName U13
SYMBOL Math\\Mul2 416 208 R0
SYMATTR InstName U3
TEXT 56 -80 Left 2 !.param v0x=v0*cos(alpha)
TEXT 56 -152 Left 2 !.param v0=65
TEXT 736 8 Left 2 !.tran 0 {T} 0 1e-3
TEXT 56 -56 Left 2 !.param v0y=v0*sin(alpha)
TEXT 728 -152 Left 2 !.param g=9.81
TEXT 56 -104 Left 2 !.param y0=1
TEXT -200 -152 Left 2 ;Startgeschwindigkeit
TEXT -72 -104 Left 2 ;Starthöhe
TEXT 576 -128 Left 2 ;Reibung in x
TEXT 576 -104 Left 2 ;Reibung in y
TEXT 496 -152 Left 2 ;Erdbeschleunigung
TEXT 728 -128 Left 2 !.param kx=972E-6
TEXT 728 -104 Left 2 !.param ky=972E-6
TEXT -312 -80 Left 2 ;Geschwindigkeitskomponenten
TEXT 544 -16 Left 2 ;Simulationszeit
TEXT 736 -16 Left 2 !.param T=5
TEXT -64 72 Left 2 ;x-Achse
TEXT 552 72 Left 2 ;y-Achse
TEXT 112 -344 Left 4 ;Wurfparabel (AB 14)
TEXT -96 -232 Left 2 ;notwendige Bibliotheken: math.lib sowie /sym/math/*.*
TEXT -96 -200 Left 2 ;https://github.com/Feinmechaniker/Mechatronik/tree/Mechatronik/00 AB/99 Tools/01 LTSpice
TEXT 104 -304 Left 2 ;Autor: Jörg Grabow (CC BY-NC-SA 4.0)
TEXT 56 -128 Left 2 !.step param alpha 0.349 0.873 0.175
TEXT -304 -128 Left 2 ;Startwinkel: 20, 30, 40, 50 Grad
TEXT 728 -80 Left 2 !.param m=0.057
TEXT 648 -80 Left 2 ;Masse
TEXT -152 376 Left 2 ;Betrag der Geschwindigkeit
TEXT 728 -56 Left 2 !.param Fg=m*g
TEXT 560 -56 Left 2 ;Gewichtskraft
RECTANGLE Normal 256 336 -304 48 2
RECTANGLE Normal 928 336 288 48 2
RECTANGLE Normal 256 480 -304 352 2
